26

C      1.6053457529      0.0083889118      0.4295213865
H      1.6589716620     -0.5431768604      1.3725208966
H      2.0218147629      1.0061291688      0.5956696223
H      0.5474116561      0.1329266176      0.1737730094
C      2.3645783935     -0.7044322931     -0.6851227299
H      3.4159499545     -0.7978801299     -0.3800936802
C      1.8378690745     -2.1006118378     -0.8987482811
C      2.6566995331     -3.2173949271     -0.7062931130
H      3.6870141591     -3.0788954537     -0.3916871348
C      2.1812468589     -4.5113152629     -0.9105684581
H      2.8043922942     -5.3867326273     -0.7610547182
C      0.8728206485     -4.6277474807     -1.3196551156
O      0.3940017119     -6.0035269592     -1.5513823030
H     -0.4575828636     -6.2113424956     -1.1298565789
C      0.0057522887     -3.5755401668     -1.5303756330
H     -1.0189586982     -3.7287723604     -1.8548883005
C      0.5116030916     -2.3000637700     -1.3066728539
H     -0.1415153292     -1.4463653531     -1.4636067211
C      2.3330173239      0.1057678428     -1.9852158275
H      1.2891785244      0.2189413068     -2.3102192943
H      2.6812053932      1.1207035635     -1.7581164603
C      3.1692156646     -0.4906753095     -3.1005719740
H      4.2217460449     -0.5682439058     -2.8063582024
H      2.8285603753     -1.4970802117     -3.3682902787
H      3.1238043871      0.1229968272     -4.0042911942
H      0.3639773352     -6.2601168334     -2.4890060620