15

C          0.18700       -1.22900       -0.00000
O          1.37700       -1.84500       -0.00000
O         -0.76900       -2.17300       -0.00000
O          0.00000       -0.03100       -0.00100
C          2.53300       -0.96600       -0.00000
C         -2.11800       -1.66800       -0.00000
C          3.76700       -1.84400       -0.00000
H          2.48200       -0.32400       -0.88900
H          2.48200       -0.32300        0.88800
H         -2.29900       -1.06000        0.89400
H         -2.75500       -2.55600       -0.00000
H         -2.29900       -1.06100       -0.89600
H          4.66400       -1.20900       -0.00000
H          3.79600       -2.48400        0.89100
H          3.79600       -2.48400       -0.89200
