    2
jmolscript: load "" {1 1 1} spacegroup "x,y,z" unitcell [{      0.000000     2.829447     2.829447 }, {      2.829447     0.000000     2.829447 }, {      2.829447     2.829447     0.000000 }]
Na      0.000000     0.000000     0.000000    14.496002
Cl      2.829447     2.829447     2.829447    88.169236
  
Same information as above printed with atom number.
   1 Na     0.000000     0.000000     0.000000    14.496002
   2 Cl     2.829447     2.829447     2.829447    88.169236
