    3
Nonperiodic system
O       0.000000    -0.000000     0.319088    16.171495
O       0.000000     1.135186    -0.159544    17.265805
O       0.000000    -1.135186    -0.159544    17.265806
  
Same information as above printed with atom number.
   1 O      0.000000    -0.000000     0.319088    16.171495
   2 O      0.000000     1.135186    -0.159544    17.265805
   3 O      0.000000    -1.135186    -0.159544    17.265806
