16

S         -0.00251       -0.05817       -0.02922
C          1.70755       -0.03034       -0.01383
H          2.24317       -0.05215        0.92027
C          2.21976        0.01718       -1.27293
H          3.27786        0.04082       -1.48540
C          1.20867        0.04479       -2.27008
H          1.40292        0.10592       -3.33111
C         -0.05341        0.01577       -1.74839
C         -1.32843        0.03545       -2.45531
C         -2.51437        0.58037       -2.05227
H         -2.63030        1.10200       -1.11341
C         -3.55165        0.41577       -3.00836
H         -4.55800        0.78331       -2.87672
C         -3.13422       -0.24836       -4.11950
H         -3.70658       -0.50162       -4.99591
S         -1.48646       -0.69310       -4.00689
