14
H10 C4
C 1.938776 -0.133720 0.000564
C 0.561038 0.517939 -0.000606
C -0.561042 -0.517937 -0.000595
C -1.938773 0.133719 0.000561
H -2.720541 -0.622269 -0.001435
H -2.065166 0.756469 0.883665
H -2.064489 0.760414 -0.879835
H -0.461633 -1.155180 -0.882585
H -0.460753 -1.155918 0.880736
H 0.460737 1.156137 0.880582
H 0.461619 1.154969 -0.882732
H 2.064847 -0.759907 -0.880144
H 2.064838 -0.756988 0.883343
H 2.720553 0.622261 -0.000687