14
H10 C4
C 1.567220 0.562814 0.134093
C 0.693706 -0.600646 -0.321856
C -0.693664 -0.600611 0.321869
C -1.567267 0.562760 -0.134112
H -1.659390 0.566359 -1.218223
H -2.563326 0.476950 0.294321
H -1.145523 1.513951 0.179330
H -1.195175 -1.537906 0.068242
H -0.584972 -0.568424 1.408533
H 0.585026 -0.568552 -1.408511
H 1.195251 -1.537883 -0.068137
H 2.563346 0.476882 -0.294283
H 1.659309 0.566482 1.218257
H 1.145517 1.514032 -0.179464