14
H10 C4
C -1.565745 0.563808 0.133866
C -0.694220 -0.601691 -0.320616
C 0.694344 -0.601820 0.320550
C 1.565636 0.563940 -0.133813
H 2.562908 0.477266 0.291695
H 1.654903 0.571485 -1.218183
H 1.144027 1.513679 0.184302
H 0.587820 -0.573096 1.407567
H 1.196360 -1.537800 0.062972
H -1.196120 -1.537799 -0.063343
H -0.587701 -0.572535 -1.407603
H -2.563089 0.476626 -0.291094
H -1.144650 1.513724 -0.184454
H -1.654655 0.571306 1.218291