
 OpenBabel02171411453D

 18 18  0  0  0  0  0  0  0  0999 V2000
   -0.2556   -1.1650   -0.5666 C   0  0  0  0  0  0  0  0  0  0  0  0
   -0.8948   -0.0407    0.2837 C   0  0  0  0  0  0  0  0  0  0  0  0
   -0.8267   -2.0932   -0.4490 H   0  0  0  0  0  0  0  0  0  0  0  0
   -0.3195   -0.8931   -1.6275 H   0  0  0  0  0  0  0  0  0  0  0  0
   -0.3348    1.3579   -0.1194 C   0  0  0  0  0  0  0  0  0  0  0  0
   -0.6106   -0.2277    1.3290 H   0  0  0  0  0  0  0  0  0  0  0  0
   -0.3993    2.0222    0.7493 H   0  0  0  0  0  0  0  0  0  0  0  0
   -0.9715    1.7891   -0.9027 H   0  0  0  0  0  0  0  0  0  0  0  0
    1.2035   -1.4377   -0.1613 C   0  0  0  0  0  0  0  0  0  0  0  0
    1.2335   -2.0566    0.7419 H   0  0  0  0  0  0  0  0  0  0  0  0
    1.7222   -1.9826   -0.9570 H   0  0  0  0  0  0  0  0  0  0  0  0
    1.1119    1.3072   -0.6418 C   0  0  0  0  0  0  0  0  0  0  0  0
    1.1400    1.0744   -1.7120 H   0  0  0  0  0  0  0  0  0  0  0  0
    1.6025    2.2775   -0.5161 H   0  0  0  0  0  0  0  0  0  0  0  0
    2.1590    0.0957    0.2551 S   0  0  0  0  0  0  0  0  0  0  0  0
   -2.3576   -0.0638    0.2085 C   0  0  0  0  0  0  0  0  0  0  0  0
   -3.5661   -0.0817    0.1371 C   0  0  0  0  0  0  0  0  0  0  0  0
   -4.6317   -0.0997    0.0803 H   0  0  0  0  0  0  0  0  0  0  0  0
  1  3  1  0  0  0  0
  1  9  1  0  0  0  0
  1  2  1  0  0  0  0
  2  6  1  0  0  0  0
  4  1  1  0  0  0  0
  5  2  1  0  0  0  0
  5  7  1  0  0  0  0
  8  5  1  0  0  0  0
  9 15  1  0  0  0  0
  9 10  1  0  0  0  0
 11  9  1  0  0  0  0
 12 14  1  0  0  0  0
 12  5  1  0  0  0  0
 12 15  1  0  0  0  0
 13 12  1  0  0  0  0
 16  2  1  0  0  0  0
 17 16  3  0  0  0  0
 18 17  1  0  0  0  0
M  END
$$$$
