
 OpenBabel02161420033D

 16 16  0  0  0  0  0  0  0  0999 V2000
   -0.8954    0.3142    0.0057 C   0  0  0  0  0  0  0  0  0  0  0  0
    0.6254    0.3076   -0.0144 C   0  0  0  0  0  0  0  0  0  0  0  0
   -1.2388    1.3567    0.0228 H   0  0  0  0  0  0  0  0  0  0  0  0
   -1.2722   -0.0807   -0.9467 H   0  0  0  0  0  0  0  0  0  0  0  0
    1.2177   -1.0922    0.0387 C   0  0  0  0  0  0  0  0  0  0  0  0
    1.0233    0.9245    0.7988 H   0  0  0  0  0  0  0  0  0  0  0  0
    2.3114   -1.0062    0.0784 H   0  0  0  0  0  0  0  0  0  0  0  0
    1.0195   -1.6061   -0.9108 H   0  0  0  0  0  0  0  0  0  0  0  0
   -1.5437   -0.4504    1.1555 C   0  0  0  0  0  0  0  0  0  0  0  0
   -2.2409    0.2030    1.6903 H   0  0  0  0  0  0  0  0  0  0  0  0
   -2.1393   -1.2807    0.7597 H   0  0  0  0  0  0  0  0  0  0  0  0
    0.7377   -1.9688    1.1912 C   0  0  0  0  0  0  0  0  0  0  0  0
    0.2102   -2.8445    0.7965 H   0  0  0  0  0  0  0  0  0  0  0  0
    1.5977   -2.3519    1.7504 H   0  0  0  0  0  0  0  0  0  0  0  0
   -0.3684   -1.1297    2.3602 S   0  0  0  0  0  0  0  0  0  0  0  0
    1.0330    0.8926   -1.1787 F   0  0  0  0  0  0  0  0  0  0  0  0
  1  3  1  0  0  0  0
  1  9  1  0  0  0  0
  2  1  1  0  0  0  0
  2  5  1  0  0  0  0
  2  6  1  0  0  0  0
  4  1  1  0  0  0  0
  5  7  1  0  0  0  0
  5 12  1  0  0  0  0
  8  5  1  0  0  0  0
  9 10  1  0  0  0  0
  9 15  1  0  0  0  0
 11  9  1  0  0  0  0
 12 14  1  0  0  0  0
 12 15  1  0  0  0  0
 13 12  1  0  0  0  0
 16  2  1  0  0  0  0
M  END
$$$$
