15

C          1.19015       -0.18067        0.06925
C          0.96689       -1.55262        0.06223
C         -0.33072       -2.04890       -0.00381
C         -1.40659       -1.16940       -0.06234
C         -1.18729        0.20322       -0.05558
C          0.11346        0.70583        0.00882
C          0.35093        2.17225        0.00003
H          2.21327        0.20769        0.12328
H          1.81478       -2.24355        0.10929
H         -0.50496       -3.12955       -0.00872
H         -2.42876       -1.55804       -0.11345
H         -2.03677        0.89382       -0.09989
H          0.46615        2.53483       -1.03073
H          1.26318        2.44139        0.54880
H         -0.48373        2.72368        0.45280
