11
mol.qcout
Mg        -0.00009       -0.00412       -0.00356
H         -1.90206        0.59073       -0.98869
H         -1.89905       -1.14845       -0.01809
B         -2.35413        0.00229        0.00244
H         -3.57293        0.00811        0.01226
H         -1.88552        0.56187        1.00301
H          1.89119        1.15070        0.04552
H          1.89069       -0.53871       -1.00952
B          2.35425        0.00330        0.00265
H          1.90505       -0.60866        0.98054
H          3.57306        0.00588       -0.00775
