26

C         -4.78135        0.79567        0.59159
H         -4.26188        1.36972        1.34691
H         -5.86639        0.79425        0.61261
C         -4.14044        0.09706       -0.35669
H         -4.73903       -0.45030       -1.07813
C         -2.66079        0.01855       -0.49657
H         -2.27751       -0.58052       -1.31711
C         -1.78670        0.63550        0.32051
H         -2.12868        1.23207        1.15514
C         -0.29775        0.51479        0.11822
H          0.22517        1.04649        0.93677
H         -0.00973       -0.55602        0.19492
C          0.17741        1.05987       -1.24093
H          1.27955        0.93191       -1.30941
H         -0.27350        0.43485       -2.04132
C         -0.17863        2.53078       -1.54966
H          0.17510        2.71965       -2.58692
H         -1.27997        2.67532       -1.55184
C          0.50682        3.58513       -0.65874
H          0.32425        4.59035       -1.09726
H          1.60326        3.40478       -0.66787
C          0.01189        3.62048        0.76221
H          0.70961        3.42122        1.57009
C         -1.26011        3.91020        1.05491
H         -1.97907        4.12387        0.27014
H         -1.58621        3.93438        2.08943
