14
H10 C4
C -1.938679 0.133712 -0.001301
C -0.560978 -0.517978 0.001413
C 0.560990 0.518020 0.001410
C 1.938672 -0.133741 -0.001303
H 2.720438 0.622202 -0.000469
H 2.065600 -0.760400 0.878973
H 2.063838 -0.756592 -0.884508
H 0.460072 1.156745 -0.879325
H 0.462229 1.154529 0.883999
H -0.462231 -1.154415 0.884055
H -0.460064 -1.156797 -0.879252
H -2.065356 0.761003 0.878533
H -2.720433 -0.622288 0.000335
H -2.064155 0.755848 -0.884953