14
H10 C4
C 1.938936 -0.133682 0.000000
C 0.561090 0.517860 -0.000002
C -0.561090 -0.517860 0.000002
C -1.938936 0.133682 -0.000000
H -2.720709 -0.622292 -0.000299
H -2.065227 0.758205 0.881849
H -2.064972 0.758618 -0.881588
H -0.461076 -1.155475 -0.881630
H -0.461111 -1.155438 0.881662
H 0.461076 1.155475 0.881630
H 0.461111 1.155438 -0.881662
H 2.720709 0.622292 0.000299
H 2.065227 -0.758204 -0.881849
H 2.064972 -0.758619 0.881588