14
H10 C4
C 1.938465 -0.133759 -0.000513
C 0.560871 0.518139 0.000548
C -0.560869 -0.518126 0.000552
C -1.938468 0.133749 -0.000513
H -2.064743 0.759587 0.880432
H -2.064321 0.757333 -0.883098
H -2.720181 -0.622273 0.000250
H -0.460587 -1.156294 -0.880681
H -0.461552 -1.155202 0.882674
H 0.461555 1.155263 0.882638
H 0.460582 1.156253 -0.880721
H 2.720180 0.622255 0.000831
H 2.064554 -0.756921 -0.883364
H 2.064518 -0.760021 0.880157