14
H10 C4
C 1.563474 0.565374 0.133487
C 0.695119 -0.603352 -0.318722
C -0.695115 -0.603393 0.318719
C -1.563466 0.565380 -0.133467
H -1.144190 1.512901 0.194136
H -1.645264 0.580483 -1.218298
H -2.563567 0.475734 0.284585
H -1.197663 -1.537823 0.056558
H -0.591482 -0.578567 1.406090
H 0.591363 -0.578381 -1.406101
H 1.197736 -1.537790 -0.056732
H 1.647907 0.578537 1.218151
H 1.142378 1.513048 -0.191331
H 2.562647 0.477419 -0.287264