14
H10 C4
C -1.566107 0.563603 0.133886
C -0.694133 -0.601495 -0.320876
C 0.694124 -0.601455 0.320883
C 1.566112 0.563590 -0.133903
H 1.657075 0.569361 -1.218128
H 1.143831 1.513768 0.181945
H 2.562763 0.477750 0.293266
H 0.586936 -0.571673 1.407767
H 1.196033 -1.537799 0.064549
H -1.195966 -1.537886 -0.064507
H -0.586965 -0.571705 -1.407758
H -2.563964 0.475632 -0.289973
H -1.146010 1.513608 -0.185392
H -1.653680 0.571724 1.218357