16

S          1.05507        0.03860       -0.05294
C          0.83897        1.68146        0.69485
N          0.44039       -0.28197       -1.68418
O          0.54145       -1.11301        0.82473
O          2.54386       -0.32393       -0.15642
F          0.81407        2.64204       -0.29726
F         -0.34126        1.72090        1.40997
F          1.89449        1.94060        1.54824
S         -1.33167       -0.30235       -1.70408
Li         1.09090        1.09186       -2.90735
C         -2.26217        1.23900       -1.45284
O         -1.66432       -0.92535       -3.06792
O         -1.75088       -1.43998       -0.76061
F         -1.52007        2.30877       -1.91390
F         -3.45147        1.17789       -2.15425
F         -2.53718        1.40794       -0.11042
