15

S -1.151688 0.856811 -0.078747
S 1.152750 -0.858045 -0.078643
O -1.652352 1.860775 -1.025210
O -0.905288 1.244849 1.315641
O 0.907241 -1.246178 1.315876
O 1.654367 -1.861664 -1.024909
C -2.584113 -0.374650 0.029734
C 2.583322 0.375585 0.029690
F -3.648073 0.220404 0.611211
F -2.260985 -1.453102 0.761658
F -2.965664 -0.796601 -1.190033
F 3.646705 -0.215259 0.616331
F 2.256070 1.456031 0.756819
F 2.967208 0.793356 -1.190879
N -0.000190 -0.001654 -0.825064