54
H36 C2 O16
C 0.325078 -0.435133 0.000000
C -0.967522 0.383467 0.000000
O 1.448278 0.448267 0.000000
H 0.357078 -1.063633 0.890000
H 0.357078 -1.063633 -0.890000
H -0.999622 1.011967 0.890000
H -0.999622 1.011967 -0.890000
H -1.824322 -0.290333 0.000000
H 2.303578 -0.002933 0.000000
H -1.230936 -0.811758 -3.274861
H -1.582657 -1.495154 -1.834045
O -1.367572 -0.637325 -2.299504
H -3.028563 -2.077576 -3.386509
H -3.811760 -0.871174 -2.613278
O -3.734430 -1.862745 -2.711218
H -3.728443 2.586615 -1.624315
H -2.377379 3.435418 -1.971948
O -2.732629 2.540073 -1.705603
H -1.843846 -3.737070 2.661747
H -3.240872 -2.921320 2.439127
O -2.248882 -2.887819 2.322429
H 1.180317 -1.328694 -4.144498
H -0.034393 -2.419400 -4.183601
O 0.958177 -2.302932 -4.188454
H -1.024114 -3.598326 -0.354782
H -0.174268 -4.077228 -1.664402
O -0.501139 -3.286332 -1.148239
H 2.234852 3.085819 -3.090375
H 0.893832 3.077807 -2.158554
O 1.262599 2.852993 -3.059806
H 2.522184 -2.869439 1.159844
H 1.927051 -4.096213 2.058473
O 2.722717 -3.768105 1.550490
H 2.669167 0.367111 -4.205223
H 1.234103 0.952907 -4.719153
O 2.073980 1.170756 -4.223236
H -3.446117 1.462596 3.239276
H -2.195732 2.104395 2.407820
O -3.175740 2.174442 2.590748
H 3.061272 3.553290 1.665120
H 4.106643 2.300278 1.603101
O 3.141210 2.558538 1.598068
H 0.184348 -0.708917 3.246578
H 0.266734 -1.730255 4.518100
O -0.350420 -1.224116 3.916661
H -1.798761 1.221544 -3.906880
H -3.323543 1.154111 -3.326207
O -2.639615 1.741990 -3.756817
H -4.261281 -0.344269 1.701334
H -3.170118 -0.757119 2.843966
O -4.110944 -0.882319 2.530984
H 3.399150 2.967072 -1.189748
H 4.503318 1.765874 -1.257752
O 3.526520 1.976109 -1.236527