  11

  Li          10.000000       10.000000       10.000000
  C           25.335262       36.096713       46.298682
  O           25.655334       34.955896       46.142265
  O           26.074170       37.173335       45.905267
  O           24.180856       36.507434       46.894508
  C           25.470635       38.380825       46.406252
  C           24.045498       37.934287       46.753198
  H           25.515725       39.142395       45.620317
  H           26.036916       38.715660       47.284941
  H           23.327203       38.138527       45.947917
  H           23.671906       38.342267       47.698274