10

O      0.2759644720     -1.1218850147     -0.0926326359
C     -0.5885235972     -0.1343811418     -0.0025883859
C      1.6164314213     -0.6015766652      0.0926374224
O     -1.7883570376     -0.3012661987     -0.0082795862
O     -0.0123374689      1.0455832520      0.0944557491
C      1.4181436676      0.8934043568     -0.0896664289
H      2.2614573119     -1.0491362390     -0.6542166326
H      1.9414290354     -0.8736577367      1.0925392808
H      1.6611836934      1.2378743368     -1.0906139037
H      1.9234674341      1.4951726048      0.6565114732