13

O  -0.1537   -1.2376   -0.3760 
O  -1.8072   -0.0351   -0.3321 
O  -1.9413   -1.9132   -1.3706 
C   0.2798   -0.2487    0.3976 
C  -0.9360    0.7021    0.3400 
C   1.6295    0.3627   -0.0410 
C  -1.3200   -1.0885   -0.7188 
H   0.4061   -0.6597    1.4051 
H  -1.3099    0.9527    1.3356 
H  -0.7512    1.6251   -0.2175 
H   2.3955   -0.4128   -0.1005 
H   1.9533    1.1034    0.6934 
H   1.5552    0.8495   -1.0151 