200
CON
 O    2.200232    2.013974    5.878217
 O   24.884232    2.013974    5.878217
 O    2.200232   11.359026    5.878217
 O   24.884232   11.359026    5.878217
 O   13.542232    8.700474    5.878217
 O   13.542232    4.672526    5.878217
 O    3.779254    0.000000    5.272761
 O    3.779254   13.373000    5.272761
 O   23.305210    0.000000    6.483673
 O   23.305210   13.373000    6.483673
 O   15.121254    6.686500    5.272761
 O   11.963208    6.686500    6.483673
 O    4.395303    2.431211    4.494485
 O   22.689159   10.941789    7.261950
 O   22.689159    2.431211    7.261950
 O    4.395303   10.941789    4.494485
 O   15.737303    9.117712    4.494485
 O   11.347160    4.255289    7.261950
 O   11.347160    9.117712    7.261950
 O   15.737303    4.255289    4.494485
 O    4.552304    1.793319    7.035050
 O   22.532160   11.579680    4.721384
 O   22.532160    1.793319    4.721384
 O    4.552304   11.579680    7.035050
 O   15.894303    8.479819    7.035050
 O   11.190160    4.893180    4.721384
 O   11.190160    8.479819    4.721384
 O   15.894303    4.893180    7.035050
 O    5.970438    1.727792    2.502945
 O   21.114027   11.645208    9.253489
 O   21.114027    1.727792    9.253489
 O    5.970438   11.645208    2.502945
 O   17.312439    8.414291    2.502945
 O    9.772026    4.958709    9.253489
 O    9.772026    8.414291    9.253489
 O   17.312439    4.958709    2.502945
 O    5.096447    4.197785    2.676940
 O   21.988014    9.175216    9.079494
 O   21.988014    4.197785    9.079494
 O    5.096447    9.175216    2.676940
 O   16.438448   10.884285    2.676940
 O   10.646016    2.488715    9.079494
 O   10.646016   10.884285    9.079494
 O   16.438448    2.488715    2.676940
 O    3.437788    2.260037    2.051498
 O   23.646677   11.112963    9.704937
 O   23.646677    2.260037    9.704937
 O    3.437788   11.112963    2.051498
 O   14.779787    8.946537    2.051498
 O   12.304676    4.426463    9.704937
 O   12.304676    8.946537    9.704937
 O   14.779787    4.426463    2.051498
 O    6.064865    2.496739    9.070089
 O   21.019600   10.876261    2.686345
 O   21.019600    2.496739    2.686345
 O    6.064865   10.876261    9.070089
 O   17.406864    9.183239    9.070089
 O    9.677599    4.189761    2.686345
 O    9.677599    9.183239    2.686345
 O   17.406864    4.189761    9.070089
 O    3.547350    1.856172    9.465106
 O   23.537115   11.516828    2.291329
 O   23.537115    1.856172    2.291329
 O    3.547350   11.516828    9.465106
 O   14.889350    8.542673    9.465106
 O   12.195113    4.830328    2.291329
 O   12.195113    8.542673    2.291329
 O   14.889350    4.830328    9.465106
 O    5.289803    0.000000    8.811447
 O    5.289803   13.373000    8.811447
 O   21.794661    0.000000    2.944987
 O   21.794661   13.373000    2.944987
 O   16.631804    6.686500    8.811447
 O   10.452661    6.686500    2.944987
 O    7.378072    0.000000    1.106280
 O    7.378072   13.373000    1.106280
 O   19.706390    0.000000   10.650154
 O   19.706390   13.373000   10.650154
 O   18.720072    6.686500    1.106280
 O    8.364391    6.686500   10.650154
 O   10.471117    1.931061   11.642397
 O   16.613346   11.441939    0.114037
 O   16.613346    1.931061    0.114037
 O   10.471117   11.441939   11.642397
 O   21.813116    8.617561   11.642397
 O    5.271347    4.755439    0.114037
 O    5.271347    8.617561    0.114037
 O   21.813116    4.755439   11.642397
 O    8.194814    2.491390    1.330828
 O   18.889648   10.881611   10.425606
 O   18.889648    2.491390   10.425606
 O    8.194814   10.881611    1.330828
 O   19.536816    9.177890    1.330828
 O    7.547650    4.195110   10.425606
 O    7.547650    9.177890   10.425606
 O   19.536816    4.195110    1.330828
 O   10.333864    0.000000    9.863648
 O   10.333864   13.373000    9.863648
 O   16.750599    0.000000    1.892786
 O   16.750599   13.373000    1.892786
 O   21.675863    6.686500    9.863648
 O    5.408599    6.686500    1.892786
 O    8.353972    1.711744   10.101129
 O   18.730490   11.661256    1.655306
 O   18.730490    1.711744    1.655306
 O    8.353972   11.661256   10.101129
 O   19.695972    8.398244   10.101129
 O    7.388490    4.974756    1.655306
 O    7.388490    8.398244    1.655306
 O   19.695972    4.974756   10.101129
 O    2.383588    0.000000    1.216791
 O    2.383588   13.373000    1.216791
 O   24.700876    0.000000   10.539643
 O   24.700876   13.373000   10.539643
 O   13.725588    6.686500    1.216791
 O   13.358875    6.686500   10.539643
 O    6.312799    2.234628   11.671788
 O   20.771666   11.138371    0.084646
 O   20.771666    2.234628    0.084646
 O    6.312799   11.138371   11.671788
 O   17.654799    8.921128   11.671788
 O    9.429664    4.451871    0.084646
 O    9.429664    8.921128    0.084646
 O   17.654799    4.451871   11.671788
Si    3.731519    1.557954    5.672480
Si   23.352945   11.815045    6.083955
Si   23.352945    1.557954    6.083955
Si    3.731519   11.815045    5.672480
Si   15.073520    8.244454    5.672480
Si   12.010944    5.128546    6.083955
Si   12.010944    8.244454    6.083955
Si   15.073520    5.128546    5.672480
Si    4.723258    2.651866    2.934406
Si   22.361206   10.721134    8.822028
Si   22.361206    2.651866    8.822028
Si    4.723258   10.721134    2.934406
Si   16.065258    9.338367    2.934406
Si   11.019205    4.034634    8.822028
Si   11.019205    9.338367    8.822028
Si   16.065258    4.034634    2.934406
Si    4.861329    1.536558    8.593954
Si   22.223135   11.836443    3.162481
Si   22.223135    1.536558    3.162481
Si    4.861329   11.836443    8.593954
Si   16.203329    8.223058    8.593954
Si   10.881135    5.149942    3.162481
Si   10.881135    8.223058    3.162481
Si   16.203329    5.149942    8.593954
Si    6.905086    1.535220    1.206210
Si   20.179379   11.837780   10.550224
Si   20.179379    1.535220   10.550224
Si    6.905086   11.837780    1.206210
Si   18.247087    8.221720    1.206210
Si    8.837379    5.151279   10.550224
Si    8.837379    8.221720   10.550224
Si   18.247087    5.151279    1.206210
Si    9.950548    1.532546   10.172843
Si   17.133915   11.840454    1.583592
Si   17.133915    1.532546    1.583592
Si    9.950548   11.840454   10.172843
Si   21.292547    8.219046   10.172843
Si    5.791915    5.153954    1.583592
Si    5.791915    8.219046    1.583592
Si   21.292547    5.153954   10.172843
Si    2.144074    1.583363    1.370800
Si   24.940390   11.789638   10.385634
Si   24.940390    1.583363   10.385634
Si    2.144074   11.789638    1.370800
Si   13.486073    8.269863    1.370800
Si   13.598390    5.103137   10.385634
Si   13.598390    8.269863   10.385634
Si   13.486073    5.103137    1.370800
Si    7.071633    2.661227   10.317447
Si   20.012831   10.711773    1.438987
Si   20.012831    2.661227    1.438987
Si    7.071633   10.711773   10.317447
Si   18.413631    9.347727   10.317447
Si    8.670832    4.025273    1.438987
Si    8.670832    9.347727    1.438987
Si   18.413631    4.025273   10.317447
 O    6.070653    1.931061   -0.114038
 O   21.013809   11.441939   11.870472
 O   21.013809    1.931061   11.870472
 O    6.070653   11.441939   -0.114038
 O   17.412653    8.617561   -0.114038
 O    9.671810    4.755439   11.870472
 O    9.671810    8.617561   11.870472
 O   17.412653    4.755439   -0.114038
 O    0.853115    1.856172    2.291329
 O    1.912335    2.234628   -0.084646
 O   25.172129   11.138371   11.841081
 O   26.231350   11.516828    9.465106
 O   25.172129    2.234628   11.841081
 O   26.231350    1.856172    9.465106
 O    0.853115   11.516828    2.291329
 O    1.912335   11.138371   -0.084646
 O   13.254335    8.921128   -0.084646
 O   13.830128    4.451871   11.841081
 O   13.830128    8.921128   11.841081
 O   13.254335    4.451871   -0.084646
