14
H10 C4
C -1.938744 0.133725 -0.001015
C -0.561030 -0.517960 0.001112
C 0.561027 0.517961 0.001106
C 1.938747 -0.133727 -0.001015
H 2.063957 -0.757191 -0.883775
H 2.720523 0.622252 -0.000729
H 2.065661 -0.759713 0.879719
H 0.460336 1.156429 -0.879833
H 0.462070 1.154744 0.883470
H -0.462082 -1.154653 0.883536
H -0.460337 -1.156512 -0.879772
H -2.720516 -0.622251 -0.001137
H -2.063772 0.757461 -0.883598
H -2.065844 0.759442 0.879880