14
H10 C4
C 1.562882 -0.565740 0.133403
C 0.695260 0.603799 -0.318281
C -0.695375 0.603856 0.318251
C -1.562773 -0.565854 -0.133375
H -1.643602 -0.582221 -1.218285
H -1.143181 -1.512722 0.195748
H -2.563319 -0.476262 0.283765
H -0.592236 0.580051 1.405681
H -1.198273 1.537809 0.055055
H 1.198044 1.537830 -0.055168
H 0.592127 0.579902 -1.405710
H 1.644066 -0.581766 1.218280
H 2.563300 -0.476342 -0.284084
H 1.143146 -1.512692 -0.195263