14
H10 C4
C 1.566525 -0.563340 0.133950
C 0.694006 0.601220 -0.321170
C -0.694009 0.601178 0.321178
C -1.566527 -0.563327 -0.133973
H -1.144231 -1.513876 0.180776
H -2.562834 -0.477673 0.293978
H -1.658194 -0.568137 -1.218140
H -0.586412 0.570544 1.408012
H -1.195790 1.537857 0.065725
H 1.195748 1.537884 -0.065590
H 0.586452 0.570698 -1.408006
H 1.146122 -1.513743 -0.183848
H 1.655255 -0.570266 1.218383
H 2.563933 -0.475758 -0.291106