14
H10 C4
C -1.565315 0.564166 0.133762
C -0.694489 -0.602058 -0.320239
C 0.694351 -0.601964 0.320275
C 1.565444 0.564024 -0.133802
H 1.653076 0.572904 -1.218279
H 1.144489 1.513454 0.186104
H 2.563331 0.476602 0.290128
H 0.588141 -0.573433 1.407295
H 1.196417 -1.537816 0.062426
H -1.196605 -1.537859 -0.062229
H -0.588364 -0.573664 -1.407268
H -1.145181 1.513452 -0.187694
H -1.651477 0.574107 1.218321
H -2.563717 0.475931 -0.288749