14
H10 C4
C -1.883870 0.868580 -0.136070
C -0.363620 0.855380 -0.126100
H -2.251720 1.691020 -0.757510
H -2.281690 1.002470 0.874950
H -2.281690 -0.067430 -0.541020
H 0.001950 1.816660 0.253490
H 0.001950 0.752780 -1.154500
C 0.180510 -0.283270 0.734260
H -0.185060 -0.180670 1.762660
C 1.700760 -0.296470 0.744230
H -0.185060 -1.244550 0.354670
H 2.098580 0.639540 1.149180
H 2.098580 -0.430360 -0.266790
H 2.068610 -1.118920 1.365670