36

C          9.95338       29.74238       38.45074
C         10.29057       27.42389       39.13195
N         14.19803       25.70116       41.07153
N         13.07144       24.29126       39.76353
H         10.27010       30.64751       38.26590
C          8.58511       29.47334       38.30225
C          8.90539       27.17981       38.98450
C         14.66289       24.41579       41.25347
C         13.99006       23.53667       40.46114
C         12.18054       23.74965       38.73216
H          8.01975       30.11533       37.94399
C          8.07022       28.17826       38.57743
H          8.59975       26.27225       39.23164
H         15.40196       24.26489       41.82772
H         14.08701       22.57984       40.35315
H         12.26740       24.20784       37.89207
H         12.44510       22.80397       38.55666
H         11.28226       23.75708       39.03434
H          7.10426       28.02747       38.43205
H         17.43480       28.03868       39.27318
C         16.54021       28.34770       39.52656
C         16.10507       29.39210       40.27942
N         15.41461       27.69151       39.09384
H         16.66716       30.04418       40.74775
N         14.72913       29.40442       40.33217
C         14.34787       28.36449       39.61378
C         15.42684       26.52615       38.21813
C         12.92118       28.00483       39.42064
H         15.63936       25.78863       38.74358
H         14.53338       26.39865       37.79861
H         16.06015       26.64300       37.52862
N         12.13790       28.99591       39.02229
C         12.39435       26.69129       39.68024
C         10.80589       28.72339       38.87858
N         11.10953       26.41535       39.53736
C         13.23649       25.58820       40.16519
