10

O      1.000000    1.000000    0.000000
C     -0.219000    1.000000    0.000000
O     -0.981000    1.000000    1.133000
C     -2.323000    0.828000    0.723000
C     -2.305000    1.254000   -0.707000
H     -2.567000    2.305000   -0.862000
F     -3.125000    0.469000   -1.445000
O     -0.983000    1.001000   -1.127000
H     -2.991000    1.447000    1.328000
H     -2.610000   -0.222000    0.848000
