100

C          3.43175       -1.39252        0.00551
C          2.89572       -0.07348        0.03268
C          1.47323        0.08550        0.04742
C          0.62611       -1.06649        0.02968
C          1.19565       -2.36942        0.00614
C          2.61139       -2.51047       -0.00326
C         -0.79460       -0.92252        0.03510
C         -1.63132       -2.08147        0.00922
C         -1.03322       -3.36999       -0.01532
C          0.34899       -3.51495       -0.01344
C          0.93975       -4.88081       -0.03676
N          2.34839       -4.96399       -0.00454
C          3.23153       -3.86407       -0.02507
C          0.88594        1.38429        0.07656
C         -0.53538        1.52941        0.08658
C         -1.38274        0.37788        0.06395
C          1.72272        2.54350        0.09249
C          1.11890        3.83332        0.12016
C         -0.26272        3.97730        0.13516
C         -1.10963        2.82966        0.11831
C         -2.52625        2.96572        0.12712
C         -3.34625        1.84414        0.09954
C         -2.80305        0.53378        0.06643
C         -0.86007        5.34084        0.16237
N         -2.26972        5.41645        0.20754
C         -3.14988        4.31542        0.15947
O          4.45470       -4.03350       -0.05355
C          2.93915       -6.30960       -0.00514
O          0.24947       -5.90395       -0.07693
O         -0.17474        6.36776        0.15071
O         -4.37393        4.48231        0.14855
C         -2.87036        6.75688        0.24987
C          3.71895        1.11095        0.04477
C          3.13688        2.36662        0.07570
C         -3.62791       -0.65080        0.02954
C         -3.05089       -1.90682        0.00389
C          5.21001        0.87933        0.01294
C         -5.13208       -0.55040        0.00779
C         -5.87456       -0.59019        1.21955
C         -7.29184       -0.54333        1.19272
C         -7.95834       -0.34158       -0.04316
C         -7.24517       -0.50778       -1.25803
C         -5.82852       -0.54777       -1.23223
C          5.85929        0.65526       -1.22984
C          7.17285        0.12650       -1.26711
C          7.89558       -0.03129       -0.05626
C          7.22670        0.09809        1.18858
C          5.91290        0.62585        1.22049
H          4.51073       -1.56504       -0.00928
H         -1.65596       -4.27110       -0.03581
H          1.73996        4.73536        0.13007
H         -4.42989        2.00146        0.10448
H          3.05089       -6.67958       -1.03862
H          3.92873       -6.25200        0.46561
H          2.26845       -6.98433        0.54302
H         -2.18641        7.42764        0.78583
H         -3.02192        7.14156       -0.77313
H         -3.84300        6.68358        0.75306
C          9.44412       -0.12558       -0.09273
C         -9.39014        0.26437       -0.06583
C          7.73491       -0.49482       -2.57258
C         -8.13817       -0.88055        2.44797
C         -8.04007       -0.81881       -2.55435
C         -5.10440       -0.70003        2.55443
C          5.09497        1.03955       -2.51707
C          7.84605       -0.55051        2.45318
F          6.86553       -1.18954        3.15436
F          8.73119       -1.52071        2.10917
F          8.48067        0.31150        3.28023
F          9.95550        0.52694        0.99049
F          9.90515        0.55023       -1.18464
F          9.97655       -1.36422       -0.11821
F          8.34027        0.38169       -3.40631
F          8.62668       -1.47845       -2.28825
F          6.72175       -1.11126       -3.24655
F          5.91010        1.24872       -3.57751
F          4.17306        0.10099       -2.86720
F          4.43378        2.22093       -2.34590
F         -7.41432       -1.81510       -3.24274
F         -9.27100       -1.31048       -2.25459
F         -8.21215        0.23822       -3.37931
F         -9.54922        1.06128        1.02847
F         -9.50204        1.08654       -1.14768
F        -10.42402       -0.60234       -0.09901
F         -8.32712        0.15816        3.29287
F         -9.36291       -1.34806        2.09109
F         -7.55059       -1.90219        3.13204
F         -5.78050       -0.15843        3.59545
F         -3.91830       -0.03586        2.52438
F         -4.82688       -2.00255        2.84621
C          5.20118        0.98313        2.54335
C         -5.00795       -0.59643       -2.54161
F         -3.84143        0.09502       -2.44358
F         -5.65798       -0.03461       -3.58833
F         -4.68788       -1.88035       -2.86916
F          4.27518        0.04934        2.89571
F          6.05287        1.14828        3.58169
F          4.55519        2.18014        2.42588
H         -3.68551       -2.79991       -0.02509
H          3.77100        3.25812        0.08204
