16
Si16
Si 0.000000 0.000000 0.000000
Si 0.921908 3.527210 1.206016
Si 2.494685 -2.888003 0.426132
Si 3.416593 0.639207 1.632148
Si 0.746239 -1.391832 3.500219
Si 1.668147 2.135378 4.706235
Si 3.240923 -4.279835 3.926350
Si 4.162832 -0.752625 5.132367
Si 2.498453 0.157532 3.742742
Si 3.420361 3.684742 4.948758
Si 4.993137 -2.730471 4.168874
Si 5.915045 0.796739 5.374890
Si 3.244691 -1.234300 7.242961
Si 4.166599 2.292909 8.448977
Si 5.739376 -4.122303 7.669093
Si 6.661284 -0.595093 8.875109